-------------------------------------------------------
          Amber 18 PMEMD                              2018
          -------------------------------------------------------

  [-O]verwriting output

File Assignments:

 Here is the input file:

 Amber Input file for the molecule set pept_3

 &cntrl
 imin=0,  nstlim=1000,  nscm=1000,
 t=       0.000,  dt=       0.001,
 ntpr=10,  ntwr=100,  ntwx=0,  ntwv=0,  ntwe=10,  ioutfm=0,  ntwprt=0,
 ntf=1,  ntb=2,  dielc= 1.000,
 cut=12.000,  iwrap=1,
 irest= 0,  ntx= 1,  ntxo= 1, mdinfo_flush_interval = 2,
igb=0,
ibelly=0, ntr=0,
 temp0=300.000,  tempi=300.000,  ntt=3,  gamma_ln= 5.000,
 tautp=   0.5000,
 ntp=1,  pres0= 1.000,  comp=44.600,  taup= 1.000,
 ntc=1, tol=   0.0005000,
 jfastw=0,
  &end

Note: ig = -1. Setting random seed to   952005 based on wallclock time in
      microseconds.

--------------------------------------------------------------------------------
   1.  RESOURCE   USE:
--------------------------------------------------------------------------------

 getting new box info from bottom of inpcrd
 NATOM  =    5152 NTYPES =      12 NBONH =    5131 MBONA  =      21
 NTHETH =    5158 MTHETA =      26 NPHIH =      85 MPHIA  =      45
 NHPARM =       0 NPARM  =       0 NNB   =    7038 NRES   =    1705
 NBONA  =      21 NTHETA =      26 NPHIA =      45 NUMBND =      18
 NUMANG =      21 NPTRA  =      27 NATYP =      12 NPHB   =       0
 IFBOX  =       1 NMXRS  =      22 IFCAP =       0 NEXTRA =       0
 NCOPY  =       0

     BOX TYPE: RECTILINEAR

--------------------------------------------------------------------------------
   2.  CONTROL  DATA  FOR  THE  RUN
--------------------------------------------------------------------------------

 Amber topology and parameter file for the molecule set pept_3

General flags:
     imin    =       0, nmropt  =       0

Nature and format of input:
     ntx     =       1, irest   =       0, ntrx    =       1

Nature and format of output:
     ntxo    =       1, ntpr    =      10, ntrx    =       1, ntwr    =     100
     iwrap   =       1, ntwx    =       0, ntwv    =       0, ntwe    =      10
     ioutfm  =       0, ntwprt  =       0, idecomp =       0, rbornstat=      0

Potential function:
     ntf     =       1, ntb     =       2, igb     =       0, nsnb    =      25
     ipol    =       0, gbsa    =       0, iesp    =       0
     dielc   =   1.00000, cut     =  12.00000, intdiel =   1.00000

Frozen or restrained atoms:
     ibelly  =       0, ntr     =       0

Molecular dynamics:
     nstlim  =      1000, nscm    =      1000, nrespa  =         1
     t       =   0.00000, dt      =   0.00100, vlimit  =  20.00000

Langevin dynamics temperature regulation:
     ig      =  952005
     temp0   = 300.00000, tempi   = 300.00000, gamma_ln=   5.00000

Pressure regulation:
     ntp     =       1
     pres0   =   1.00000, comp    =  44.60000, taup    =   1.00000

Ewald parameters:
     verbose =       0, ew_type =       0, nbflag  =       1, use_pme =       1
     vdwmeth =       1, eedmeth =       1, netfrc  =       1
     Box X =   37.188   Box Y =   37.188   Box Z =   37.188
     Alpha =   90.000   Beta  =   90.000   Gamma =   90.000
     NFFT1 =   40       NFFT2 =   40       NFFT3 =   40
     Cutoff=   12.000   Tol   =0.100E-04
     Ewald Coefficient =  0.22664
     Interpolation order =    4

--------------------------------------------------------------------------------
   3.  ATOMIC COORDINATES AND VELOCITIES
--------------------------------------------------------------------------------

 Amber Coordinate file for the molecule set pept_3
 begin time read from input coords =     0.000 ps

 Number of triangulated 3-point waters found:     1703

     Sum of charges from parm topology file =   1.15750000
     Assuming uniform neutralizing plasma

--------------------------------------------------------------------------------
   4.  RESULTS
 NSTEP =        0   TIME(PS) =       0.000  TEMP(K) =   298.34  PRESS =   331.6
 Etot   =    -10906.6816  EKtot   =      4581.6369  EPtot      =    -15488.3185
 BOND   =      2090.9178  ANGLE   =       551.6262  DIHED      =        10.4404
 1-4 NB =         8.2343  1-4 EEL =        96.8454  VDWAALS    =      3111.2825
 EELEC  =    -21357.6651  EHBOND  =         0.0000  RESTRAINT  =         0.0000
 EKCMT  =      1513.0923  VIRIAL  =      1144.9251  VOLUME     =     51427.7713
                                                    Density    =         1.0001
 Ewald error estimate:   0.5200E-04
 ------------------------------------------------------------------------------

      A V E R A G E S   O V E R     100 S T E P S

 NSTEP =     1000   TIME(PS) =       1.000  TEMP(K) =   298.77  PRESS =  -134.5
 Etot   =    -10929.9316  EKtot   =      4588.2296  EPtot      =    -15518.1613
 BOND   =      2110.2124  ANGLE   =       583.4920  DIHED      =        11.6743
 1-4 NB =         8.6837  1-4 EEL =        97.0438  VDWAALS    =      3030.5835
 EELEC  =    -21359.8509  EHBOND  =         0.0000  RESTRAINT  =         0.0000
 EKCMT  =      1515.7663  VIRIAL  =      1664.6726  VOLUME     =     51340.9424
                                                    Density    =         1.0018
 Ewald error estimate:   0.1876E-03
 ------------------------------------------------------------------------------

      R M S  F L U C T U A T I O N S

 NSTEP =     1000   TIME(PS) =       1.000  TEMP(K) =     3.30  PRESS =   242.8
 Etot   =        83.1940  EKtot   =        50.6758  EPtot      =        58.5542
 BOND   =        36.1222  ANGLE   =        16.2556  DIHED      =         1.8733
 1-4 NB =         1.2098  1-4 EEL =         2.8026  VDWAALS    =        55.4848
 EELEC  =        78.6855  EHBOND  =         0.0000  RESTRAINT  =         0.0000
 EKCMT  =        25.6176  VIRIAL  =       266.8948  VOLUME     =       101.1196
                                                    Density    =         0.0020
 Ewald error estimate:   0.1350E-03
 ------------------------------------------------------------------------------
