-------------------------------------------------------
          Amber 9  SANDER                              2006
          -------------------------------------------------------

  [-O]verwriting output

File Assignments:

 Here is the input file:

 Amber Input file for the molecule set gly1

 &cntrl
 imin=0, timlim=999999, nstlim=1000,  nscm=0,
 t=       0.000,  dt=       0.001,
 ntpr=10,  ntwr=10,  ntwx=0,  ntwv=0,  ntwe=10,  ioutfm=0,  ntwprt=0,
 ntf=2,  ntb=0,  dielc= 1.000,
 cut=12.000,  scnb= 2.000,  scee= 1.200,  iwrap=0,
 irest= 0,  ntx= 1,
igb=2,

 temp0=300.000,  tempi=300.000,  heat= 0.000,  ntt=1,
 dtemp=   0.0000,  tautp=   0.5000,  vlimit= 0.000,
 ntp=0,  pres0= 1.000,  comp=44.600,  taup= 1.000,
 ntc=2, tol=   0.0005000,
 jfastw=0,
  nmropt=0, ntrx=1,
 &end

--------------------------------------------------------------------------------
   1.  RESOURCE   USE:
--------------------------------------------------------------------------------

 NATOM  =       8 NTYPES =       6 NBONH =       3 MBONA  =       4
 NTHETH =       6 MTHETA =       4 NPHIH =       7 MPHIA  =       3
 NHPARM =       0 NPARM  =       0 NNB   =      27 NRES   =       1
 NBONA  =       4 NTHETA =       4 NPHIA =       3 NUMBND =       5
 NUMANG =       6 NPTRA  =       3 NATYP =       6 NPHB   =       0
 IFBOX  =       0 NMXRS  =       8 IFCAP =       0 NEXTRA =       0
 NCOPY  =       0

--------------------------------------------------------------------------------
   2.  CONTROL  DATA  FOR  THE  RUN
--------------------------------------------------------------------------------

 Amber topology and parameter file for the molecule set gly1

General flags:
     imin    =       0, nmropt  =       0

Nature and format of input:
     ntx     =       1, irest   =       0, ntrx    =       1

Nature and format of output:
     ntxo    =       1, ntpr    =      10, ntrx    =       1, ntwr    =      10
     iwrap   =       0, ntwx    =       0, ntwv    =       0, ntwe    =      10
     ioutfm  =       0, ntwprt  =       0, idecomp =       0, rbornstat=      0

Potential function:
     ntf     =       2, ntb     =       0, igb     =       2, nsnb    =      25
     ipol    =       0, gbsa    =       0, iesp    =       0
     dielc   =   1.00000, cut     =  12.00000, intdiel =   1.00000
     saltcon =   0.00000, offset  =   0.09000, gbalpha=    0.80000
     gbbeta  =   0.00000, gbgamma =   2.90912, surften =   0.00500
     rdt     =   0.00000, rgbmax  =  25.00000
     alpb  =        0
     bbox_xmin =   0.00000bbox_ymin =   0.00000bbox_zmin =   0.00000
     bbox_xmax =   0.00000bbox_ymax =   0.00000bbox_zmax =   0.00000
     scnb    =   2.00000, scee    =   1.20000

Frozen or restrained atoms:
     ibelly  =       0, ntr     =       0

Molecular dynamics:
     nstlim  =      1000, nscm    =  99999999, nrespa  =         1
     t       =   0.00000, dt      =   0.00100, vlimit  =   0.00000

Berendsen (weak-coupling) temperature regulation:
     temp0   = 300.00000, tempi   = 300.00000, tautp   =   0.50000

SHAKE:
     ntc     =       2, jfastw  =       0
     tol     =   0.00050

--------------------------------------------------------------------------------
   3.  ATOMIC COORDINATES AND VELOCITIES
--------------------------------------------------------------------------------

 begin time read from input coords =     0.000 ps

 Number of triangulated 3-point waters found:        0

--------------------------------------------------------------------------------
   4.  RESULTS
 NSTEP =        0   TIME(PS) =       0.000  TEMP(K) =   308.31  PRESS =     0.0
 Etot   =       -76.5526  EKtot   =         6.4330  EPtot      =       -82.9856
 BOND   =         0.5690  ANGLE   =         1.7063  DIHED      =         0.0000
 1-4 NB =         1.2341  1-4 EEL =        49.3244  VDWAALS    =        -0.0628
 EELEC  =       -49.7724  EGB     =       -85.9842  RESTRAINT  =         0.0000
 ------------------------------------------------------------------------------

      A V E R A G E S   O V E R    1000 S T E P S

 NSTEP =     1000   TIME(PS) =       1.000  TEMP(K) =   264.06  PRESS =     0.0
 Etot   =       -76.0600  EKtot   =         5.5098  EPtot      =       -81.5698
 BOND   =         1.1903  ANGLE   =         2.7947  DIHED      =         0.3597
 1-4 NB =         0.3240  1-4 EEL =        45.3155  VDWAALS    =        -0.0354
 EELEC  =       -44.1040  EGB     =       -87.4145  RESTRAINT  =         0.0000
 ------------------------------------------------------------------------------

      R M S  F L U C T U A T I O N S

 NSTEP =     1000   TIME(PS) =       1.000  TEMP(K) =    48.51  PRESS =     0.0
 Etot   =         0.4155  EKtot   =         1.0123  EPtot      =         0.9729
 BOND   =         0.7246  ANGLE   =         1.4328  DIHED      =         0.3980
 1-4 NB =         0.4430  1-4 EEL =         2.7228  VDWAALS    =         0.0135
 EELEC  =         3.2609  EGB     =         1.4582  RESTRAINT  =         0.0000
 ------------------------------------------------------------------------------
