-------------------------------------------------------
          Amber 10 SANDER                              2008
          -------------------------------------------------------

  [-O]verwriting output

File Assignments:

 Here is the input file:

 Amber Input file for the molecule set mg_wat_1

 &cntrl
 imin=0,  nstlim=10000,  nscm=1000,
 t=       0.000,  dt=       0.001,
 ntpr=10,  ntwr=500,  ntwx=0,  ntwv=0,  ntwe=10,  ioutfm=0,  ntwprt=0,
 ntf=1,  ntb=2,  dielc= 1.000,
 cut= 6.538,  scnb= 2.000,  scee= 1.200,  iwrap=0,
 irest= 0,  ntx= 1,
igb=0,
ibelly=0, ntr=0,
 temp0=300.000,  tempi=300.000,  heat= 0.000,  ntt=1,
 dtemp=   0.0000,  tautp=   0.5000,  vlimit=20.000,
 ntp=1,  pres0= 1.000,  comp=44.600,  taup= 1.000,
 ntc=1, tol=   0.0005000,
 jfastw=0,
  &end

--------------------------------------------------------------------------------
   1.  RESOURCE   USE:
--------------------------------------------------------------------------------

 getting new box info from bottom of inpcrd

 NATOM  =     631 NTYPES =       3 NBONH =     420 MBONA  =       0
 NTHETH =     210 MTHETA =       0 NPHIH =       0 MPHIA  =       0
 NHPARM =       0 NPARM  =       0 NNB   =     841 NRES   =     211
 NBONA  =       0 NTHETA =       0 NPHIA =       0 NUMBND =       1
 NUMANG =       1 NPTRA  =       0 NATYP =       3 NPHB   =       0
 IFBOX  =       1 NMXRS  =       3 IFCAP =       0 NEXTRA =       0
 NCOPY  =       0

     BOX TYPE: RECTILINEAR

--------------------------------------------------------------------------------
   2.  CONTROL  DATA  FOR  THE  RUN
--------------------------------------------------------------------------------

 Amber topology and parameter file for the molecule set mg_wat_1

General flags:
     imin    =       0, nmropt  =       0

Nature and format of input:
     ntx     =       1, irest   =       0, ntrx    =       1

Nature and format of output:
     ntxo    =       1, ntpr    =      10, ntrx    =       1, ntwr    =     500
     iwrap   =       0, ntwx    =       0, ntwv    =       0, ntwe    =      10
     ioutfm  =       0, ntwprt  =       0, idecomp =       0, rbornstat=      0

Potential function:
     ntf     =       1, ntb     =       2, igb     =       0, nsnb    =      25
     ipol    =       0, gbsa    =       0, iesp    =       0
     dielc   =   1.00000, cut     =   6.53800, intdiel =   1.00000
     scnb    =   2.00000, scee    =   1.20000

Frozen or restrained atoms:
     ibelly  =       0, ntr     =       0

Molecular dynamics:
     nstlim  =     10000, nscm    =      1000, nrespa  =         1
     t       =   0.00000, dt      =   0.00100, vlimit  =  20.00000

Berendsen (weak-coupling) temperature regulation:
     temp0   = 300.00000, tempi   = 300.00000, tautp   =   0.50000

Pressure regulation:
     ntp     =       1
     pres0   =   1.00000, comp    =  44.60000, taup    =   1.00000

Ewald parameters:
     verbose =       0, ew_type =       0, nbflag  =       1, use_pme =       1
     vdwmeth =       1, eedmeth =       1, netfrc  =       1
     Box X =   18.680   Box Y =   18.680   Box Z =   18.680
     Alpha =   90.000   Beta  =   90.000   Gamma =   90.000
     NFFT1 =   20       NFFT2 =   20       NFFT3 =   20
     Cutoff=    6.538   Tol   =0.100E-04
     Ewald Coefficient =  0.43180
     Interpolation order =    4

--------------------------------------------------------------------------------
   3.  ATOMIC COORDINATES AND VELOCITIES
--------------------------------------------------------------------------------

 Amber Coordinate file for the molecule set mg_wat_1
 begin time read from input coords =     0.000 ps

 Number of triangulated 3-point waters found:        0

     Sum of charges from parm topology file =   2.00000000
     Assuming uniform neutralizing plasma

--------------------------------------------------------------------------------
   4.  RESULTS
 NSTEP =        0   TIME(PS) =       0.000  TEMP(K) =   297.63  PRESS = -7663.5
 Etot   =     -2293.3050  EKtot   =       558.9159  EPtot      =     -2852.2210
 BOND   =        39.4280  ANGLE   =        11.3468  DIHED      =         0.0000
 1-4 NB =         0.0000  1-4 EEL =         0.0000  VDWAALS    =       328.2210
 EELEC  =     -3231.2168  EHBOND  =         0.0000  RESTRAINT  =         0.0000
 EKCMT  =       191.8762  VIRIAL  =      1270.4596  VOLUME     =      6518.4991
                                                    Density    =         0.9699
 Ewald error estimate:   0.1416E-02
 ------------------------------------------------------------------------------

      A V E R A G E S   O V E R   10000 S T E P S

 NSTEP =    10000   TIME(PS) =      10.000  TEMP(K) =   287.00  PRESS =   -61.0
 Etot   =     -1902.0479  EKtot   =       538.9626  EPtot      =     -2441.0105
 BOND   =       192.3913  ANGLE   =       108.3268  DIHED      =         0.0000
 1-4 NB =         0.0000  1-4 EEL =         0.0000  VDWAALS    =       424.3518
 EELEC  =     -3166.0804  EHBOND  =         0.0000  RESTRAINT  =         0.0000
 EKCMT  =       182.5390  VIRIAL  =       191.0104  VOLUME     =      6213.1995
                                                    Density    =         1.0178
 Ewald error estimate:   0.1433E-02
 ------------------------------------------------------------------------------

      R M S  F L U C T U A T I O N S

 NSTEP =    10000   TIME(PS) =      10.000  TEMP(K) =    22.78  PRESS =   849.4
 Etot   =        95.5421  EKtot   =        42.7697  EPtot      =        57.5521
 BOND   =        18.5300  ANGLE   =        13.0105  DIHED      =         0.0000
 1-4 NB =         0.0000  1-4 EEL =         0.0000  VDWAALS    =        26.3875
 EELEC  =        63.5093  EHBOND  =         0.0000  RESTRAINT  =         0.0000
 EKCMT  =        11.9057  VIRIAL  =       111.9387  VOLUME     =        74.4378
                                                    Density    =         0.0121
 Ewald error estimate:   0.3271E-03
 ------------------------------------------------------------------------------
